                                   MODFLOW 6
                U.S. GEOLOGICAL SURVEY MODULAR HYDROLOGIC MODEL
                          GROUNDWATER FLOW MODEL (GWF)
                  VERSION 6.5.0.dev0 (preliminary) 01/29/2024
                               ***DEVELOP MODE***

   MODFLOW 6 compiled Jan 29 2024 03:01:13 with Intel(R) Fortran Intel(R) 64
   Compiler Classic for applications running on Intel(R) 64, Version 2021.7.0
                             Build 20220726_000000

This software is preliminary or provisional and is subject to 
revision. It is being provided to meet the need for timely best 
science. The software has not received final approval by the U.S. 
Geological Survey (USGS). No warranty, expressed or implied, is made 
by the USGS or the U.S. Government as to the functionality of the 
software and related material nor shall the fact of release 
constitute any such warranty. The software is provided on the 
condition that neither the USGS nor the U.S. Government shall be held 
liable for any damages resulting from the authorized or unauthorized 
use of the software.


As a work of the United States Government, this USGS product is 
in the public domain within the United States. You can copy, 
modify, distribute, and perform the work, even for commercial 
purposes, all without asking permission. Additionally, USGS 
waives copyright and related rights in the work worldwide 
through CC0 1.0 Universal Public Domain Dedication 
(https://creativecommons.org/publicdomain/zero/1.0/).

The following GNU Lesser General Public License (LGPL) libraries
are used in this USGS product:

    SPARSKIT version 2.0
      ilut, luson, and qsplit 
      (https://www-users.cse.umn.edu/~saad/software/SPARSKIT/)

    RCM - Reverse Cuthill McKee Ordering
      (https://people.math.sc.edu/Burkardt/f_src/rcm/rcm.html)

    BLAS - Basic Linear Algebra Subprograms Level 1
      (https://people.math.sc.edu/Burkardt/f_src/blas1_d/blas1_d.html)

    SPARSEKIT - Sparse Matrix Utility Package
      amux, dperm, dvperm, rperm, and cperm
      (https://people.sc.fsu.edu/~jburkardt/f77_src/sparsekit/sparsekit.html)

The following BSD-3 License libraries are used in this USGS product:

    Modern Fortran DAG Library
      Copyright (c) 2018, Jacob Williams
      All rights reserved.
      (https://github.com/jacobwilliams/daglib)

MODFLOW 6 compiler options: /Isrc\libmf6core.a.p /Isrc /I..\src
/Isrc\libmf6_external.a.p /MTd /nologo /warn:general /warn:truncated_source
/stand:f08 /Zi /traceback /O2 /fpe:0 /heap-arrays:0 /traceback /fpp
/Qdiag-disable:7416 /Qdiag-disable:7025 /Qdiag-disable:5268
/Fdsrc\libmf6core.a.p\Utilities_compilerversion.F90.pdb
/module:src\libmf6core.a.p
/Fosrc/libmf6core.a.p/Utilities_compilerversion.F90.obj /c

System command used to initiate simulation:
C:\Users\00105295\Projects\loopflopy\example\exe\mf6.exe

MODFLOW was compiled using uniform precision.

Real Variables
  KIND: 8
  TINY (smallest non-zero value):    2.225074-308
  HUGE (largest value):    1.797693+308
  PRECISION: 15
  SIZE IN BITS: 64

Integer Variables
  KIND: 4
  HUGE (largest value): 2147483647
  SIZE IN BITS: 32

Long Integer Variables
  KIND: 8
  HUGE (largest value): 9223372036854775807
  SIZE IN BITS: 64

Logical Variables
  KIND: 4
  SIZE IN BITS: 32
 
 NAMEFILE OPTIONS:
    NEWTON-RAPHSON method enabled for the model.
    NEWTON-RAPHSON UNDER-RELAXATION based on the bottom elevation of the model will be applied to the model.
    FLOWS WILL BE SAVED TO BUDGET FILE SPECIFIED IN OUTPUT CONTROL
 END NAMEFILE OPTIONS:

 DISU -- UNSTRUCTURED GRID DISCRETIZATION PACKAGE, VERSION 2 : 3/27/2014 - INPUT READ FROM MEMPATH: __INPUT__/TRANSIENTMODEL/DISU                     


 Setting Discretization Options
    VERTICAL_OFFSET_TOLERANCE = .000000000000000
 End Setting Discretization Options

 Setting Discretization Dimensions
    NODES = 13358
    NJA = 107986
    NVERT = 732
 End Setting Discretization Dimensions

 Setting Discretization Griddata
    TOP set from input file
    BOT set from input file
    AREA set from input file
 End Setting Discretization Griddata

 Setting Discretization Connectivity
    IAC set from input file
    JA set from input file
    IHC set from input file
    CL12 set from input file
    HWVA set from input file
    ANGLDEGX set from input file
 End Setting Discretization Connectivity

 Discretization Vertex data loaded
 Discretization Cell2d data loaded

 NPF -- NODE PROPERTY FLOW PACKAGE, VERSION 1, 3/30/2015 INPUT READ FROM MEMPATH: __INPUT__/TRANSIENTMODEL/NPF                      


 IC -- Initial Conditions Package, Version 8, 3/28/2015 input read from mempath: __INPUT__/TRANSIENTMODEL/IC                       


 Setting NPF Options
    Cell-by-cell flow information will be saved to binary file whenever ICBCFL is not zero.
    XT3D formulation is selected.
    Specific discharge will be calculated at cell centers and written to DATA-SPDIS in budget file when requested.
 End Setting NPF Options

 Setting NPF Griddata
    ICELLTYPE set from input file
    K set from input file
    K33 set from input file
    K22 set from input file
    ANGLE1 set from input file
    ANGLE2 set from input file
    ANGLE3 set from input file
 End Setting NPF Griddata


 WEL   -- WEL PACKAGE, VERSION 8, 2/22/2014 INPUT READ FROM MEMPATH: __INPUT__/TRANSIENTMODEL/WEL_0                    

 PROCESSING WEL BASE OPTIONS
    FLOWS WILL BE SAVED TO BUDGET FILE SPECIFIED IN OUTPUT CONTROL
    LISTS OF WEL CELLS WILL BE PRINTED.
    WEL FLOWS WILL BE PRINTED TO LISTING FILE.
 END OF WEL BASE OPTIONS

 PROCESSING WEL OPTIONS
 END OF WEL OPTIONS

 PROCESSING WEL BASE DIMENSIONS
    MAXBOUND =       4
 END OF WEL BASE DIMENSIONS

 RCH   -- RCH PACKAGE, VERSION 8, 2/22/2014 INPUT READ FROM MEMPATH: __INPUT__/TRANSIENTMODEL/RCH_0                    

 PROCESSING RCH BASE OPTIONS
 END OF RCH BASE OPTIONS

 PROCESSING RCH OPTIONS
 END OF RCH OPTIONS

 PROCESSING RCH BASE DIMENSIONS
    MAXBOUND =    1337
 END OF RCH BASE DIMENSIONS

 CHD   -- CHD PACKAGE, VERSION 8, 2/22/2014 INPUT READ FROM MEMPATH: __INPUT__/TRANSIENTMODEL/CHD_0                    

 PROCESSING CHD BASE OPTIONS
 END OF CHD BASE OPTIONS

 PROCESSING CHD BASE DIMENSIONS
    MAXBOUND =    1002
 END OF CHD BASE DIMENSIONS
    STRT set from input file

 XT3D is active.



 STO -- STORAGE PACKAGE, VERSION 1, 5/19/2014 INPUT READ FROM UNIT 1005


 # File generated by Flopy version 3.8.2 on 02/18/2025 at 17:59:33.
 PROCESSING STORAGE OPTIONS
 END OF STORAGE OPTIONS
 PROCESSING GRIDDATA
 END PROCESSING GRIDDATA

The observation utility is active for "TRANSIENTMODEL"
 # File generated by Flopy version 3.8.2 on 02/18/2025 at 17:59:34.

Processing observation options:

The PRINT_INPUT option has been specified.


 OBSERVATIONS READ FROM FILE "transientmodel"
 ----------------------------------------------------------------------------------------------------------------------------------------------------------------------------------------------------------------------------
 NAME                                     TYPE                                       TIME         LOCATION DATA                              OUTPUT FILENAME                                                                 
 ----------------------------------------------------------------------------------------------------------------------------------------------------------------------------------------------------------------------------
 OBS5                                     CONTINUOUS  HEAD                           ALL TIMES    "  2904"                                   transientmodel_observations.csv                                                 
 OBS7                                     CONTINUOUS  HEAD                           ALL TIMES    "  3671"                                   transientmodel_observations.csv                                                 
 OBS6                                     CONTINUOUS  HEAD                           ALL TIMES    "  6338"                                   transientmodel_observations.csv                                                 
 OBS2                                     CONTINUOUS  HEAD                           ALL TIMES    "  3945"                                   transientmodel_observations.csv                                                 
 OBS1                                     CONTINUOUS  HEAD                           ALL TIMES    "  3902"                                   transientmodel_observations.csv                                                 
 OBS3                                     CONTINUOUS  HEAD                           ALL TIMES    "  3845"                                   transientmodel_observations.csv                                                 
 ----------------------------------------------------------------------------------------------------------------------------------------------------------------------------------------------------------------------------


    BINARY GRID INFORMATION WILL BE WRITTEN TO:
      UNIT NUMBER: 1017
      FILE NAME: transientmodel.disu.grb

 OPENED transientmodel.disu.grb
 FILE TYPE:DATA(BINARY)   UNIT 1017   STATUS:REPLACE             
 FORMAT:UNFORMATTED            ACCESS:STREAM              
 ACTION:READWRITE           

      THE LAST TIME STEP WILL BE PRINTED
      THE LAST TIME STEP WILL BE PRINTED
 # File generated by Flopy version 3.8.2 on 02/18/2025 at 17:59:34.

 PROCESSING OC OPTIONS

    BUDGET INFORMATION WILL BE WRITTEN TO:
      UNIT NUMBER: 1018
      FILE NAME: transientmodel.bud

 OPENED transientmodel.bud
 FILE TYPE:DATA(BINARY)   UNIT 1018   STATUS:REPLACE             
 FORMAT:UNFORMATTED            ACCESS:STREAM              
 ACTION:READWRITE           

    HEAD INFORMATION WILL BE WRITTEN TO:
      UNIT NUMBER: 1019
      FILE NAME: transientmodel.hds

 OPENED transientmodel.hds
 FILE TYPE:DATA(BINARY)   UNIT 1019   STATUS:REPLACE             
 FORMAT:UNFORMATTED            ACCESS:STREAM              
 ACTION:READWRITE           

 END OF OC OPTIONS

start timestep kper="1" kstp="1" mode="normal"


 BEGIN READING OUTPUT CONTROL FOR STRESS PERIOD 1
      THE LAST TIME STEP WILL BE SAVED
      ALL TIME STEPS WILL BE SAVED

 END READING OUTPUT CONTROL FOR STRESS PERIOD 1


 STRESS PERIOD 1 IS TRANSIENT

 ------------------
  WEL NO.    NODE  
 ------------------
     1        226  
     2       1563  
     3        69   
     4       1406  
 ------------------


 UBDSV1 SAVING           STO-SS ON UNIT   1018 AT TIME STEP      1, STRESS PERIOD      1
 UBDSV1 SAVING           STO-SY ON UNIT   1018 AT TIME STEP      1, STRESS PERIOD      1
 UBDSV1 SAVING     FLOW-JA-FACE ON UNIT   1018 AT TIME STEP      1, STRESS PERIOD      1
 UBDSV06 SAVING       DATA-SPDIS IN MODEL TRANSIENTMODEL   PACKAGE NPF             CONNECTED TO MODEL TRANSIENTMODEL   PACKAGE NPF              ON UNIT   1018 AT TIME STEP      1, STRESS PERIOD      1
 UBDSV06 SAVING              WEL IN MODEL TRANSIENTMODEL   PACKAGE TRANSIENTMODEL  CONNECTED TO MODEL TRANSIENTMODEL   PACKAGE WEL_0            ON UNIT   1018 AT TIME STEP      1, STRESS PERIOD      1
 UBDSV06 SAVING              RCH IN MODEL TRANSIENTMODEL   PACKAGE TRANSIENTMODEL  CONNECTED TO MODEL TRANSIENTMODEL   PACKAGE RCH_0            ON UNIT   1018 AT TIME STEP      1, STRESS PERIOD      1
 UBDSV06 SAVING              CHD IN MODEL TRANSIENTMODEL   PACKAGE TRANSIENTMODEL  CONNECTED TO MODEL TRANSIENTMODEL   PACKAGE CHD_0            ON UNIT   1018 AT TIME STEP      1, STRESS PERIOD      1

end timestep


start timestep kper="1" kstp="2" mode="normal"

 UBDSV1 SAVING           STO-SS ON UNIT   1018 AT TIME STEP      2, STRESS PERIOD      1
 UBDSV1 SAVING           STO-SY ON UNIT   1018 AT TIME STEP      2, STRESS PERIOD      1
 UBDSV1 SAVING     FLOW-JA-FACE ON UNIT   1018 AT TIME STEP      2, STRESS PERIOD      1
 UBDSV06 SAVING       DATA-SPDIS IN MODEL TRANSIENTMODEL   PACKAGE NPF             CONNECTED TO MODEL TRANSIENTMODEL   PACKAGE NPF              ON UNIT   1018 AT TIME STEP      2, STRESS PERIOD      1
 UBDSV06 SAVING              WEL IN MODEL TRANSIENTMODEL   PACKAGE TRANSIENTMODEL  CONNECTED TO MODEL TRANSIENTMODEL   PACKAGE WEL_0            ON UNIT   1018 AT TIME STEP      2, STRESS PERIOD      1
 UBDSV06 SAVING              RCH IN MODEL TRANSIENTMODEL   PACKAGE TRANSIENTMODEL  CONNECTED TO MODEL TRANSIENTMODEL   PACKAGE RCH_0            ON UNIT   1018 AT TIME STEP      2, STRESS PERIOD      1
 UBDSV06 SAVING              CHD IN MODEL TRANSIENTMODEL   PACKAGE TRANSIENTMODEL  CONNECTED TO MODEL TRANSIENTMODEL   PACKAGE CHD_0            ON UNIT   1018 AT TIME STEP      2, STRESS PERIOD      1

end timestep


start timestep kper="1" kstp="3" mode="normal"

 UBDSV1 SAVING           STO-SS ON UNIT   1018 AT TIME STEP      3, STRESS PERIOD      1
 UBDSV1 SAVING           STO-SY ON UNIT   1018 AT TIME STEP      3, STRESS PERIOD      1
 UBDSV1 SAVING     FLOW-JA-FACE ON UNIT   1018 AT TIME STEP      3, STRESS PERIOD      1
 UBDSV06 SAVING       DATA-SPDIS IN MODEL TRANSIENTMODEL   PACKAGE NPF             CONNECTED TO MODEL TRANSIENTMODEL   PACKAGE NPF              ON UNIT   1018 AT TIME STEP      3, STRESS PERIOD      1
 UBDSV06 SAVING              WEL IN MODEL TRANSIENTMODEL   PACKAGE TRANSIENTMODEL  CONNECTED TO MODEL TRANSIENTMODEL   PACKAGE WEL_0            ON UNIT   1018 AT TIME STEP      3, STRESS PERIOD      1
 UBDSV06 SAVING              RCH IN MODEL TRANSIENTMODEL   PACKAGE TRANSIENTMODEL  CONNECTED TO MODEL TRANSIENTMODEL   PACKAGE RCH_0            ON UNIT   1018 AT TIME STEP      3, STRESS PERIOD      1
 UBDSV06 SAVING              CHD IN MODEL TRANSIENTMODEL   PACKAGE TRANSIENTMODEL  CONNECTED TO MODEL TRANSIENTMODEL   PACKAGE CHD_0            ON UNIT   1018 AT TIME STEP      3, STRESS PERIOD      1

end timestep


start timestep kper="1" kstp="4" mode="normal"

 UBDSV1 SAVING           STO-SS ON UNIT   1018 AT TIME STEP      4, STRESS PERIOD      1
 UBDSV1 SAVING           STO-SY ON UNIT   1018 AT TIME STEP      4, STRESS PERIOD      1
 UBDSV1 SAVING     FLOW-JA-FACE ON UNIT   1018 AT TIME STEP      4, STRESS PERIOD      1
 UBDSV06 SAVING       DATA-SPDIS IN MODEL TRANSIENTMODEL   PACKAGE NPF             CONNECTED TO MODEL TRANSIENTMODEL   PACKAGE NPF              ON UNIT   1018 AT TIME STEP      4, STRESS PERIOD      1
 UBDSV06 SAVING              WEL IN MODEL TRANSIENTMODEL   PACKAGE TRANSIENTMODEL  CONNECTED TO MODEL TRANSIENTMODEL   PACKAGE WEL_0            ON UNIT   1018 AT TIME STEP      4, STRESS PERIOD      1
 UBDSV06 SAVING              RCH IN MODEL TRANSIENTMODEL   PACKAGE TRANSIENTMODEL  CONNECTED TO MODEL TRANSIENTMODEL   PACKAGE RCH_0            ON UNIT   1018 AT TIME STEP      4, STRESS PERIOD      1
 UBDSV06 SAVING              CHD IN MODEL TRANSIENTMODEL   PACKAGE TRANSIENTMODEL  CONNECTED TO MODEL TRANSIENTMODEL   PACKAGE CHD_0            ON UNIT   1018 AT TIME STEP      4, STRESS PERIOD      1

end timestep


start timestep kper="1" kstp="5" mode="normal"

 UBDSV1 SAVING           STO-SS ON UNIT   1018 AT TIME STEP      5, STRESS PERIOD      1
 UBDSV1 SAVING           STO-SY ON UNIT   1018 AT TIME STEP      5, STRESS PERIOD      1
 UBDSV1 SAVING     FLOW-JA-FACE ON UNIT   1018 AT TIME STEP      5, STRESS PERIOD      1
 UBDSV06 SAVING       DATA-SPDIS IN MODEL TRANSIENTMODEL   PACKAGE NPF             CONNECTED TO MODEL TRANSIENTMODEL   PACKAGE NPF              ON UNIT   1018 AT TIME STEP      5, STRESS PERIOD      1
 UBDSV06 SAVING              WEL IN MODEL TRANSIENTMODEL   PACKAGE TRANSIENTMODEL  CONNECTED TO MODEL TRANSIENTMODEL   PACKAGE WEL_0            ON UNIT   1018 AT TIME STEP      5, STRESS PERIOD      1
 UBDSV06 SAVING              RCH IN MODEL TRANSIENTMODEL   PACKAGE TRANSIENTMODEL  CONNECTED TO MODEL TRANSIENTMODEL   PACKAGE RCH_0            ON UNIT   1018 AT TIME STEP      5, STRESS PERIOD      1
 UBDSV06 SAVING              CHD IN MODEL TRANSIENTMODEL   PACKAGE TRANSIENTMODEL  CONNECTED TO MODEL TRANSIENTMODEL   PACKAGE CHD_0            ON UNIT   1018 AT TIME STEP      5, STRESS PERIOD      1

end timestep


start timestep kper="1" kstp="6" mode="normal"

 UBDSV1 SAVING           STO-SS ON UNIT   1018 AT TIME STEP      6, STRESS PERIOD      1
 UBDSV1 SAVING           STO-SY ON UNIT   1018 AT TIME STEP      6, STRESS PERIOD      1
 UBDSV1 SAVING     FLOW-JA-FACE ON UNIT   1018 AT TIME STEP      6, STRESS PERIOD      1
 UBDSV06 SAVING       DATA-SPDIS IN MODEL TRANSIENTMODEL   PACKAGE NPF             CONNECTED TO MODEL TRANSIENTMODEL   PACKAGE NPF              ON UNIT   1018 AT TIME STEP      6, STRESS PERIOD      1
 UBDSV06 SAVING              WEL IN MODEL TRANSIENTMODEL   PACKAGE TRANSIENTMODEL  CONNECTED TO MODEL TRANSIENTMODEL   PACKAGE WEL_0            ON UNIT   1018 AT TIME STEP      6, STRESS PERIOD      1
 UBDSV06 SAVING              RCH IN MODEL TRANSIENTMODEL   PACKAGE TRANSIENTMODEL  CONNECTED TO MODEL TRANSIENTMODEL   PACKAGE RCH_0            ON UNIT   1018 AT TIME STEP      6, STRESS PERIOD      1
 UBDSV06 SAVING              CHD IN MODEL TRANSIENTMODEL   PACKAGE TRANSIENTMODEL  CONNECTED TO MODEL TRANSIENTMODEL   PACKAGE CHD_0            ON UNIT   1018 AT TIME STEP      6, STRESS PERIOD      1

end timestep


start timestep kper="1" kstp="7" mode="normal"

 UBDSV1 SAVING           STO-SS ON UNIT   1018 AT TIME STEP      7, STRESS PERIOD      1
 UBDSV1 SAVING           STO-SY ON UNIT   1018 AT TIME STEP      7, STRESS PERIOD      1
 UBDSV1 SAVING     FLOW-JA-FACE ON UNIT   1018 AT TIME STEP      7, STRESS PERIOD      1
 UBDSV06 SAVING       DATA-SPDIS IN MODEL TRANSIENTMODEL   PACKAGE NPF             CONNECTED TO MODEL TRANSIENTMODEL   PACKAGE NPF              ON UNIT   1018 AT TIME STEP      7, STRESS PERIOD      1
 UBDSV06 SAVING              WEL IN MODEL TRANSIENTMODEL   PACKAGE TRANSIENTMODEL  CONNECTED TO MODEL TRANSIENTMODEL   PACKAGE WEL_0            ON UNIT   1018 AT TIME STEP      7, STRESS PERIOD      1
 UBDSV06 SAVING              RCH IN MODEL TRANSIENTMODEL   PACKAGE TRANSIENTMODEL  CONNECTED TO MODEL TRANSIENTMODEL   PACKAGE RCH_0            ON UNIT   1018 AT TIME STEP      7, STRESS PERIOD      1
 UBDSV06 SAVING              CHD IN MODEL TRANSIENTMODEL   PACKAGE TRANSIENTMODEL  CONNECTED TO MODEL TRANSIENTMODEL   PACKAGE CHD_0            ON UNIT   1018 AT TIME STEP      7, STRESS PERIOD      1

end timestep


start timestep kper="1" kstp="8" mode="normal"

 UBDSV1 SAVING           STO-SS ON UNIT   1018 AT TIME STEP      8, STRESS PERIOD      1
 UBDSV1 SAVING           STO-SY ON UNIT   1018 AT TIME STEP      8, STRESS PERIOD      1
 UBDSV1 SAVING     FLOW-JA-FACE ON UNIT   1018 AT TIME STEP      8, STRESS PERIOD      1
 UBDSV06 SAVING       DATA-SPDIS IN MODEL TRANSIENTMODEL   PACKAGE NPF             CONNECTED TO MODEL TRANSIENTMODEL   PACKAGE NPF              ON UNIT   1018 AT TIME STEP      8, STRESS PERIOD      1
 UBDSV06 SAVING              WEL IN MODEL TRANSIENTMODEL   PACKAGE TRANSIENTMODEL  CONNECTED TO MODEL TRANSIENTMODEL   PACKAGE WEL_0            ON UNIT   1018 AT TIME STEP      8, STRESS PERIOD      1
 UBDSV06 SAVING              RCH IN MODEL TRANSIENTMODEL   PACKAGE TRANSIENTMODEL  CONNECTED TO MODEL TRANSIENTMODEL   PACKAGE RCH_0            ON UNIT   1018 AT TIME STEP      8, STRESS PERIOD      1
 UBDSV06 SAVING              CHD IN MODEL TRANSIENTMODEL   PACKAGE TRANSIENTMODEL  CONNECTED TO MODEL TRANSIENTMODEL   PACKAGE CHD_0            ON UNIT   1018 AT TIME STEP      8, STRESS PERIOD      1

end timestep


start timestep kper="1" kstp="9" mode="normal"

 UBDSV1 SAVING           STO-SS ON UNIT   1018 AT TIME STEP      9, STRESS PERIOD      1
 UBDSV1 SAVING           STO-SY ON UNIT   1018 AT TIME STEP      9, STRESS PERIOD      1
 UBDSV1 SAVING     FLOW-JA-FACE ON UNIT   1018 AT TIME STEP      9, STRESS PERIOD      1
 UBDSV06 SAVING       DATA-SPDIS IN MODEL TRANSIENTMODEL   PACKAGE NPF             CONNECTED TO MODEL TRANSIENTMODEL   PACKAGE NPF              ON UNIT   1018 AT TIME STEP      9, STRESS PERIOD      1
 UBDSV06 SAVING              WEL IN MODEL TRANSIENTMODEL   PACKAGE TRANSIENTMODEL  CONNECTED TO MODEL TRANSIENTMODEL   PACKAGE WEL_0            ON UNIT   1018 AT TIME STEP      9, STRESS PERIOD      1
 UBDSV06 SAVING              RCH IN MODEL TRANSIENTMODEL   PACKAGE TRANSIENTMODEL  CONNECTED TO MODEL TRANSIENTMODEL   PACKAGE RCH_0            ON UNIT   1018 AT TIME STEP      9, STRESS PERIOD      1
 UBDSV06 SAVING              CHD IN MODEL TRANSIENTMODEL   PACKAGE TRANSIENTMODEL  CONNECTED TO MODEL TRANSIENTMODEL   PACKAGE CHD_0            ON UNIT   1018 AT TIME STEP      9, STRESS PERIOD      1

end timestep


start timestep kper="1" kstp="10" mode="normal"

 UBDSV1 SAVING           STO-SS ON UNIT   1018 AT TIME STEP     10, STRESS PERIOD      1
 UBDSV1 SAVING           STO-SY ON UNIT   1018 AT TIME STEP     10, STRESS PERIOD      1
 UBDSV1 SAVING     FLOW-JA-FACE ON UNIT   1018 AT TIME STEP     10, STRESS PERIOD      1
 UBDSV06 SAVING       DATA-SPDIS IN MODEL TRANSIENTMODEL   PACKAGE NPF             CONNECTED TO MODEL TRANSIENTMODEL   PACKAGE NPF              ON UNIT   1018 AT TIME STEP     10, STRESS PERIOD      1
 UBDSV06 SAVING              WEL IN MODEL TRANSIENTMODEL   PACKAGE TRANSIENTMODEL  CONNECTED TO MODEL TRANSIENTMODEL   PACKAGE WEL_0            ON UNIT   1018 AT TIME STEP     10, STRESS PERIOD      1
 UBDSV06 SAVING              RCH IN MODEL TRANSIENTMODEL   PACKAGE TRANSIENTMODEL  CONNECTED TO MODEL TRANSIENTMODEL   PACKAGE RCH_0            ON UNIT   1018 AT TIME STEP     10, STRESS PERIOD      1
 UBDSV06 SAVING              CHD IN MODEL TRANSIENTMODEL   PACKAGE TRANSIENTMODEL  CONNECTED TO MODEL TRANSIENTMODEL   PACKAGE CHD_0            ON UNIT   1018 AT TIME STEP     10, STRESS PERIOD      1

end timestep


start timestep kper="1" kstp="11" mode="normal"

 UBDSV1 SAVING           STO-SS ON UNIT   1018 AT TIME STEP     11, STRESS PERIOD      1
 UBDSV1 SAVING           STO-SY ON UNIT   1018 AT TIME STEP     11, STRESS PERIOD      1
 UBDSV1 SAVING     FLOW-JA-FACE ON UNIT   1018 AT TIME STEP     11, STRESS PERIOD      1
 UBDSV06 SAVING       DATA-SPDIS IN MODEL TRANSIENTMODEL   PACKAGE NPF             CONNECTED TO MODEL TRANSIENTMODEL   PACKAGE NPF              ON UNIT   1018 AT TIME STEP     11, STRESS PERIOD      1
 UBDSV06 SAVING              WEL IN MODEL TRANSIENTMODEL   PACKAGE TRANSIENTMODEL  CONNECTED TO MODEL TRANSIENTMODEL   PACKAGE WEL_0            ON UNIT   1018 AT TIME STEP     11, STRESS PERIOD      1
 UBDSV06 SAVING              RCH IN MODEL TRANSIENTMODEL   PACKAGE TRANSIENTMODEL  CONNECTED TO MODEL TRANSIENTMODEL   PACKAGE RCH_0            ON UNIT   1018 AT TIME STEP     11, STRESS PERIOD      1
 UBDSV06 SAVING              CHD IN MODEL TRANSIENTMODEL   PACKAGE TRANSIENTMODEL  CONNECTED TO MODEL TRANSIENTMODEL   PACKAGE CHD_0            ON UNIT   1018 AT TIME STEP     11, STRESS PERIOD      1

end timestep


start timestep kper="1" kstp="12" mode="normal"

 UBDSV1 SAVING           STO-SS ON UNIT   1018 AT TIME STEP     12, STRESS PERIOD      1
 UBDSV1 SAVING           STO-SY ON UNIT   1018 AT TIME STEP     12, STRESS PERIOD      1
 UBDSV1 SAVING     FLOW-JA-FACE ON UNIT   1018 AT TIME STEP     12, STRESS PERIOD      1
 UBDSV06 SAVING       DATA-SPDIS IN MODEL TRANSIENTMODEL   PACKAGE NPF             CONNECTED TO MODEL TRANSIENTMODEL   PACKAGE NPF              ON UNIT   1018 AT TIME STEP     12, STRESS PERIOD      1
 UBDSV06 SAVING              WEL IN MODEL TRANSIENTMODEL   PACKAGE TRANSIENTMODEL  CONNECTED TO MODEL TRANSIENTMODEL   PACKAGE WEL_0            ON UNIT   1018 AT TIME STEP     12, STRESS PERIOD      1
 UBDSV06 SAVING              RCH IN MODEL TRANSIENTMODEL   PACKAGE TRANSIENTMODEL  CONNECTED TO MODEL TRANSIENTMODEL   PACKAGE RCH_0            ON UNIT   1018 AT TIME STEP     12, STRESS PERIOD      1
 UBDSV06 SAVING              CHD IN MODEL TRANSIENTMODEL   PACKAGE TRANSIENTMODEL  CONNECTED TO MODEL TRANSIENTMODEL   PACKAGE CHD_0            ON UNIT   1018 AT TIME STEP     12, STRESS PERIOD      1

 WEL PACKAGE (WEL_0) FLOW RATES   PERIOD      1   STEP       12
 -----------------------------------------------
   NUMBER   CELLID                    RATE      
 -----------------------------------------------
     1      (226)                -1000.0000     
     2      (1563)               -1000.0000     
     3      (69)                 -1000.0000     
     4      (1406)               -1000.0000     
 -----------------------------------------------




 HEAD WILL BE SAVED ON UNIT 1019 AT END OF TIME STEP   12, STRESS PERIOD    1


  VOLUME BUDGET FOR ENTIRE MODEL AT END OF TIME STEP   12, STRESS PERIOD   1
  ---------------------------------------------------------------------------------------------------

     CUMULATIVE VOLUME      L**3       RATES FOR THIS TIME STEP      L**3/T          PACKAGE NAME    
     ------------------                 ------------------------                     ----------------

           IN:                                      IN:
           ---                                      ---
              STO-SS =     1595786.7071                STO-SS =        1662.5742     STORAGE                          
              STO-SY =      715594.8761                STO-SY =         668.7512     STORAGE                          
                 WEL =           0.0000                   WEL =           0.0000     WEL_0                            
                 RCH =      267400.0003                   RCH =         366.3014     RCH_0                            
                 CHD =   549958944.5606                   CHD =      753677.6096     CHD_0                            

            TOTAL IN =   552537726.1441              TOTAL IN =      756375.2364

          OUT:                                     OUT:
          ----                                     ----
              STO-SS =        2435.5963                STO-SS =       4.8752E-12     STORAGE                          
              STO-SY =       24041.5969                STO-SY =       2.1519E-08     STORAGE                          
                 WEL =     2920000.0000                   WEL =        4000.0000     WEL_0                            
                 RCH =           0.0000                   RCH =           0.0000     RCH_0                            
                 CHD =   549591748.9725                   CHD =      752376.7130     CHD_0                            

           TOTAL OUT =   552538226.1656             TOTAL OUT =      756376.7130

            IN - OUT =        -500.0215              IN - OUT =          -1.4766

 PERCENT DISCREPANCY =          -0.00     PERCENT DISCREPANCY =          -0.00




         TIME SUMMARY AT END OF TIME STEP   12 IN STRESS PERIOD    1
                          TIME STEP LENGTH =    97.3975    
                        STRESS PERIOD TIME =    730.000    
                     TOTAL SIMULATION TIME =    730.000    

end timestep

